/*--------------------------------*- C++ -*----------------------------------*\
| =========                 |                                                 |
| \\      /  F ield         | OpenFOAM: The Open Source CFD Toolbox           |
|  \\    /   O peration     | Version:  5.x                                   |
|   \\  /    A nd           | Web:      www.OpenFOAM.org                      |
|    \\/     M anipulation  |                                                 |
\*---------------------------------------------------------------------------*/
FoamFile
{
    version     2.0;
    format      ascii;
    class       dictionary;
    object      controlDict;
}
// * * * * * * * * * * * * * * * * * * * * * * * * * * * * * * * * * * * * * //

application     simpleFoam;

startFrom       latestTime;

startTime       0;

stopAt          endTime;

endTime         1000;

deltaT          1;

writeControl    timeStep;

writeInterval   50;

purgeWrite      0;

writeFormat     binary;

writePrecision  6;

writeCompression uncompressed;

timeFormat      general;

timePrecision   6;

runTimeModifiable true;

adjustTimeStep no;

libs
(
    "libsolverFunctionObjects.so"
);

functions
{

    #includeFunc residuals

    forces
    {
        type            forceCoeffs;
        libs            ("libforces.so");
        writeControl    adjustableRunTime;
        writeInterval   0.01;

        patches
        (
            triangle
        );

        log         true;
        rho         rhoInf;
        rhoInf      1;
        CofR        (0 0 0);
        liftDir     (0 1 0);
        dragDir     (1 0 0);
        pitchAxis   (0 0 1);
        magUInf     0.06; 
        lRef        0.1;
        Aref        0.1;
    }
}

// ************************************************************************* //
